Pcp_File_Version=4
*** BLOCK J: BOUNDARY INFORMATION *********************************************
    NumBP     NObs  SeepF  FreeD DrainF  qQWLF
      518        0      f      t      f      f
 Interp H/Flux H/Flx1  Atm/H Seep/H Atm/WL Atm/SF   Snow
      f      f      f      f      f      f      f      f
Gradient SubDrip SurfDrip SeepFace TriggIrrig
      f      f      f      f        f          f      f      f
Node Number Array
      1       8       9      11      12      13      20      21      23      24 
     25      26     119     122     124     126     128     130     132     134 
    136     138     140     142     144     146     147     148     149     150 
    152     154     156     158     160     162     164     166     168     170 
    172     174     176     629     632     634     636     638     640     642 
    644     646     648     650     652     654     656     657     658     659 
    660     662     664     666     668     670     672     674     676     678 
    680     682     684     686    1021    1022    1023    1024    1025    1026 
   1027    1028    1029    1030    1031    1032    1033    1034    1035    1036 
   1037    1038    1039    1040    1041    1042    1043    1044    2437    2438 
   2439    2440    2441    2442    2443    2444    2445    2446    2447    2448 
   2449    2450    2451    2452    2453    2454    2455    2456    2457    2458 
   2459    2460    2761    2762    2763    2764    2765    2766    2767    2768 
   2769    2770    2771    2772    2773    2774    2775    2776    2777    2778 
   2779    2780    2781    2782    2783    2784    2785    2786    2787    2788 
   2789    2790    2791    2792    2793    2794    2795    2796    2797    2798 
   2799    2800    2801    2802    2803    2804    2805    2806    2807    2808 
   2809    2810    2811    2812    2813    2814    2815    2816    2817    2818 
   2819    2820    2821    2822    2823    2824    2825    2826    2827    2828 
   2829    2830    2831    2832    2833    2834    2835    2836    2837    2838 
   2839    2840    2841    2842    2843    2844    2845    2846    2847    2848 
   2849    2850    2851    2852    2853    2854    2855    2856    2857    2858 
   2859    2860    2861    2862    2863    2864    2865    2866    2867    2868 
   2869    2870    2871    2872    2873    2874    2875    2876    2877    2878 
   2879    2880    2881    2882    2883    2884    2885    2886    2887    2888 
   2889    2890    2891    2892    2893    2894    2895    2896    2897    2898 
   2899    2900    2901    2902    2903    2904    2905    2906    2907    2908 
   2909    2910    2911    2912    2913    2914    2915    2916    2917    2918 
   2919    2920    2921    2922    2923    2924    2925    2926    2927    2928 
   2929    2930    2931    2932    2933    2934    2935    2936    2937    2938 
   2939    2940    2941    2942    2943    2944    2945    2946    2947    2948 
   2949    2950    2951    2952    2953    2954    2955    2956    2957    2958 
   2959    2960    2961    2962    2963    2964    2965    2966    2967    2968 
   2969    2970    2971    2972    2973    2974    2975    2976    2977    2978 
   2979    2980    2981    2982    2983    2984    2985    2986    2987    2988 
   2989    2990    2991    2992    2993    2994    2995    2996    2997    2998 
   2999    3000    3001    3002    3003    3004    3005    3006    3007    3008 
   3009    3010    3011    3012    3013    3014    3015    3016    3017    3018 
   3019    3020    3021    3022    3023    3024    3025    3026    3027    3028 
   3029    3030    3031    3032    3033    3034    3035    3036    3037    3038 
   3039    3040    3041    3042    3043    3044    3045    3046    3047    3048 
   3049    3050    3051    3052    3053    3054    3055    3056    3057    3058 
   3059    3060    3061    3062    3063    3064    3065    3066    3067    3068 
   3069    3070    3071    3072    3073    3074    3075    3076    3077    3078 
   3079    3080    3081    3082    3083    3084    3085    3086    3087    3088 
   3089    3090    3091    3092    3093    3094    3095    3096    3097    3098 
   3099    3100    3101    3102    3103    3104    3105    3106    3107    3108 
   3109    3110    3111    3112    3113    3114    3115    3116    3117    3118 
   3119    3120    3121    3122    3123    3124    3125    3126    3127    3128 
   3129    3130    3131    3132    3133    3134    3135    3136    3137    3138 
   3139    3140    3141    3142    3143    3144    3145    3146    3147    3148 
   3149    3150    3151    3152    3153    3154    3155    3156 
Width Array
2.18385e-005 4.36771e-005 0.76282 1.27564 0.512818 4.36819e-005 2.1841e-005 0.50641 1.14744 1.02564 
1.41025 1.28205 1.40385 1.15385 1.15385 1.15385 1.15385 1.15385 1.15385 1.15385 
1.15385 1.15385 1.15385 1.15385 1.15385 1.15385 1.15385 1.15385 1.15385 1.15385 
1.15385 1.15385 1.15385 1.15385 1.15385 1.15385 1.15385 1.15385 1.15385 1.15385 
1.15385 1.15385 1.15385 1.40385 1.15385 1.15385 1.15385 1.15385 1.15385 1.15385 
1.15385 1.15385 1.15385 1.15385 1.15385 1.15385 1.15385 1.15385 1.15385 1.15385 
1.15385 1.15385 1.15385 1.15385 1.15385 1.15385 1.15385 1.15385 1.15385 1.15385 
1.15385 1.15385 1.15385 1.15385 6.55162e-005 6.55158e-005 6.55168e-005 6.55164e-005 6.55174e-005 6.5517e-005 
6.5518e-005 6.55176e-005 6.55185e-005 6.55182e-005 6.55191e-005 6.55187e-005 6.55197e-005 6.55193e-005 6.55203e-005 6.55199e-005 
6.55209e-005 6.55205e-005 6.55215e-005 6.55211e-005 6.55221e-005 6.55217e-005 6.55227e-005 6.55223e-005 0.76923 0.76923 
0.76923 0.76923 0.76923 0.76923 0.76923 0.76923 0.76923 0.76923 0.76923 0.76923 
1.92308 1.92308 1.92308 1.92308 1.92308 1.92308 1.92308 1.92308 1.92308 1.92308 
1.92308 1.92308 2.30769 2.30769 2.30769 2.30769 2.30769 2.30769 2.30769 2.30769 
2.69231 2.30769 2.30769 2.30769 2.30769 2.69231 2.30769 2.30769 2.30769 2.30769 
2.30769 2.30769 2.30769 2.30769 2.30769 2.30769 2.30769 2.30769 2.30769 2.30769 
2.30769 2.30769 2.30769  2.6923 2.30769 2.30769 2.30769 2.30769 2.30769 2.30769 
2.30769 2.30769 1.92308 2.30769 2.30769 2.30769 2.30769 1.92308 2.30769 2.30769 
2.30769 2.30769 2.30769 2.30769 2.30769 2.30769 2.30769 2.30769 2.30769 2.30769 
2.30769 2.30769 2.30769 2.30769 2.30769  2.6923 2.30769 2.69231 2.30769 2.30769 
2.30769 2.30769 2.30769 2.30769 2.30769 2.30769 2.30769 2.30769 2.30769 2.30769 
2.30769 2.30769 2.30769 2.30769 2.30769 2.30769 2.30769 2.30769 2.30769 2.30769 
2.30769 2.30769 2.30769 2.30769 2.30769 2.30769 2.30769  2.6923 2.30769 1.92308 
2.30769 2.30769 2.30769 2.30769 2.30769 2.30769 2.30769 2.30769 2.30769 2.30769 
2.30769 2.30769 2.30769 2.30769 2.30769 2.30769 2.30769 2.30769 2.30769 2.30769 
2.30769 2.30769 2.30769 2.30769 2.30769 2.30769 2.30769 2.30769 2.30769  2.6923 
2.30769 2.30769 2.30769 2.30769 2.30769 2.30769 2.30769 2.30769 2.30769 2.30769 
2.30769 2.30769 2.30769 2.30769 2.30769 2.30769 2.30769 2.30769 2.30769 2.30769 
2.30769 2.30769 2.30769 2.30769 2.30769 2.30769 2.30769 2.30769 2.30769 2.30769 
2.30769  2.6923 2.30769 2.30769 2.30769 2.30769 2.30769 2.30769 2.30769 2.30769 
2.30769 2.30769 2.30769 2.30769 2.30769 2.30769 2.30769 2.30769 2.30769 2.30769 
2.30769 2.30769 2.30769 2.30769 2.30769 2.30769 2.30769 2.30769 2.30769 2.30769 
2.30769 2.30769 2.30769  2.6923 2.30769 2.30769 2.30769 2.30769 2.30769 2.30769 
2.30769 2.30769 2.30769 2.30769 2.30769 2.30769 2.30769 2.30769 2.30769 2.30769 
2.30769 2.30769 2.30769 2.30769 2.30769 2.30769 2.30769 2.30769 2.30769 2.30769 
2.30769 2.30769 2.30769 2.30769 2.30769  2.6923 2.30769 2.30769 2.30769 2.30769 
2.30769 2.30769 2.30769 2.30769 2.30769 2.30769 2.30769 2.30769 2.30769 2.30769 
2.30769 2.30769 2.30769 2.30769 2.30769 2.30769 2.30769 2.30769 2.30769 2.30769 
2.30769 2.30769 2.30769 2.30769 2.30769 2.30769 2.30769  2.6923 2.30769 2.30769 
2.30769 2.30769 2.30769 2.30769 2.30769 2.30769 2.30769 2.30769 2.30769 2.30769 
2.30769 2.30769 2.30769 2.30769 2.30769 2.30769 2.30769 2.30769 2.30769 2.30769 
2.30769  2.3077 2.30769 2.30769 2.30769 2.30769 2.30769 2.30769 2.30769  2.6923 
2.30769 2.30769 2.30769 2.30769 2.30769 2.30769 2.30769 2.30769 2.30769 2.30769 
2.30769 2.30769 2.30769 2.30769 2.30769 2.30769 2.30769 2.30769 2.30769 2.30769 
2.30769 2.30769 2.30769 2.30769 2.30769 2.30769 2.30769 2.30769 2.30769 2.30769 
2.30769  2.6923 2.30769 2.30769 2.30769 2.30769 2.30769 2.69231 2.30769 2.30769 
2.30769 2.30769 2.30769 2.30769 2.30769 2.30769 2.30769 2.30769 2.30769 2.30769 
2.30769 2.30769 2.30769 2.30769 2.30769 2.30769 2.30769 2.30769 2.30769 2.30769 
2.30769 2.30769 2.30769  2.6923 2.30769 2.30769 2.30769 2.30769 2.30769 1.92308 
2.30769 2.30769 2.30769 2.30769 2.30769 2.30769 2.30769 2.30769 2.30769 2.30769 
2.30769 2.30769 2.30769 2.30769 2.30769 2.30769 2.30769 2.30769 2.30769 2.30769 
2.30769 2.30769 2.30769 2.30769 2.30769  2.6923 1.53845 1.53845 1.53845 1.53845 
1.53845 1.53845 1.53845 1.53845 1.53845 1.53845 1.53845 1.53845 
Length of soil surface associated with transpiration
              0
*** End of input file 'BOUNDARY.IN' *******************************************
