Pcp_File_Version=3
  NumNPD  NumElD  NumBPD  MBandD  NSeepD  NumSPD    NDrD  NElDrD   NMatD   NObsD     NSD   NAnis
    9945   50694     768      30       1       1       1      20       9       1       1       1
