Pcp_File_Version=4
*** BLOCK J: BOUNDARY INFORMATION *********************************************
    NumBP     NObs  SeepF  FreeD DrainF  qQWLF
       61        0      f      t      f      f
 Interp H/Flux H/Flx1  Atm/H Seep/H Atm/WL Atm/SF   Snow
      f      f      f      f      f      f      f      f
Gradient SubDrip SurfDrip SeepFace TriggIrrig
      f      f      f      f        f          f      f      f
Node Number Array
      1       2       3       4       5       6       7       8       9      10 
     11      12      13      14      15      16      17      18      19      20 
     21      22      23      24      25      94      95      96      97      98 
     99     100     101     102     103     104     105     106     107     108 
    109     110     111     112     113     114     115     116     117     118 
    119     120     121     122     123     124     125     126     127     128 
    129 
Width Array
1.84211  1.8421 1.88889 1.88889 1.96023 0.142679 1.96023 3.68421 3.68421 3.68421 
3.68421 3.68421 3.68421 3.68421 3.68421 3.68421 3.68421 3.68421 3.68421 3.68421 
3.68421 3.68421 3.68421 3.68421 3.68421 0.142678 0.142678 0.142678 0.142679 0.142678 
0.142678 0.142679 0.142678 0.142678 0.142679 0.142679 0.142678 0.142678 0.142679 0.142678 
0.142678 0.142679 0.142678 0.142678 0.142678 3.77778 3.77778 3.77778 3.77778 3.77778 
3.77778 3.77778 3.77778 3.77778 3.77778 3.77778 3.77778 3.77778 3.77778 3.77778 
3.77778 
Length of soil surface associated with transpiration
              0
Number of Flowing points and their indeces
    0
*** End of input file 'BOUNDARY.IN' *******************************************
