Pcp_File_Version=4
*** BLOCK J: BOUNDARY INFORMATION *********************************************
    NumBP     NObs  SeepF  FreeD DrainF  qQWLF
      768        0      f      t      f      f
 Interp H/Flux H/Flx1  Atm/H Seep/H Atm/WL Atm/SF   Snow
      f      f      f      f      f      f      f      f
Gradient SubDrip SurfDrip SeepFace TriggIrrig
      f      f      f      f        f          f      f      f
Node Number Array
      9      12      13      14      15      16      17      18      19      20 
     37      40      41      44    1239    1299    1330    1361    1392    1423 
   1454    1485    1516    1547    1578    1609    1640    1671    1702    1733 
   1764    1795    1826    2006    2010    2012    2014    2016    2018    2020 
   2022    2024    2026    2028    2030    2032    2034    2036    2038    2040 
   2042    2044    2046    2048    2050    2052    2054    2056    2058    2062 
   2063    2068    2070    2072    2074    2076    2078    2080    2082    2084 
   2086    2088    2090    2092    2094    2096    2098    2100    2102    2104 
   2105    2108    2112    2114    2116    2118    2120    2122    2124    2126 
   2128    2130    2132    2134    2136    2138    2140    2142    2144    2146 
   2148    2150    2152    2154    2156    2158    2160    2164    2165    2166 
   2167    2168    2169    2170    2171    2172    2173    2174    2175    2176 
   2177    2178    2179    2180    2181    2182    2183    2184    2185    2186 
   2187    2188    2189    2190    2191    2192    2193    2194    2195    2196 
   2197    2198    2199    2200    2201    2202    2203    2204    2205    2206 
   2207    2208    2209    2210    2211    2212    2213    2214    2215    2216 
   2217    2218    2219    2220    2221    2222    2223    2224    2225    2226 
   2227    2228    2229    2230    2231    2232    2233    2234    2235    2236 
   2237    2238    2239    2240    2241    2242    2243    2244    2245    2246 
   2247    2248    2249    2250    2251    2252    2253    2254    2255    2256 
   2257    2258    2259    2260    2261    2262    2263    2264    2265    2266 
   2267    2268    2269    2270    2271    2272    2273    2274    2275    2276 
   2277    2278    2279    2280    2281    2282    2283    2284    2285    2286 
   2287    2288    2289    2290    2291    2292    2293    2294    2295    2296 
   2297    2298    2299    2300    2301    2302    2303    2304    2305    2306 
   2307    2308    2309    2310    2311    2312    2313    2314    2315    2316 
   2317    2318    2319    2320    2321    2322    2323    2324    2325    2326 
   2327    2328    2329    2330    2331    2332    2333    2334    2335    2336 
   2337    2338    2339    2340    2341    2342    2343    2344    2345    2346 
   2347    2348    2349    2350    2351    2352    2353    2354    2355    2356 
   2357    2358    2359    2360    2361    2362    2363    2364    2365    2366 
   2367    2368    2369    2370    2371    2372    2373    2374    2375    2376 
   2377    2378    2379    2380    2381    2382    2383    2384    2385    2386 
   2387    2388    2389    2390    2391    2392    2393    2394    2395    2396 
   2397    2398    2399    2400    2401    2402    2403    2404    2405    2406 
   2407    2408    2409    2410    2411    2412    2413    2414    2415    2416 
   2417    2418    2419    2420    2421    2422    2423    2424    2425    2426 
   2427    2428    2429    2430    2431    2432    2433    2434    2435    2436 
   2437    2438    2439    2440    2441    2442    2443    2444    2445    2446 
   2447    2448    2449    2450    2451    2452    2453    2454    2455    2456 
   2457    2458    2459    2460    2461    2462    2463    2464    2465    2466 
   2467    2468    2469    2470    2471    2472    2473    2474    2475    2476 
   2477    2478    2479    2480    2481    2482    2483    2484    2485    2486 
   2487    2488    2489    2490    2491    2492    2493    2494    2495    2496 
   2497    2498    2499    2500    2501    2502    2503    2504    2505    2506 
   2507    2508    2509    2510    2511    2512    2513    2514    2515    2516 
   2517    2518    2519    2520    2521    2522    2523    2524    2525    2526 
   2527    2528    2529    2530    2531    2532    2533    2534    2535    2536 
   2537    2538    2539    2540    2541    2542    2543    2544    2545    2546 
   2547    2548    2549    2550    2551    2552    2553    2554    2555    2556 
   2557    2558    2559    2560    2561    2562    2563    2564    2565    2566 
   2567    2568    2569    2570    2571    2572    2573    2574    2575    2576 
   2577    2578    2579    2580    2581    2582    2583    2584    2585    2586 
   2587    2588    2589    2590    2591    2592    2593    2594    2595    2596 
   2597    2598    2599    2600    2601    2602    2603    2604    2605    2606 
   2607    2608    2609    2610    2611    2612    2613    2614    2615    2616 
   2617    2618    2619    2620    2621    2622    2623    2624    2625    2626 
   2627    2628    2629    2630    2631    2632    2633    2634    2635    2636 
   2637    2638    2639    2640    2641    2642    2643    2644    2645    2646 
   2647    2648    2649    2650    2651    2652    2653    2654    2655    2656 
   2657    2658    2659    2660    2661    2662    2663    2664    2665    2666 
   2667    2668    2669    2670    2671    2672    2673    2674    2675    2676 
   2677    2678    2679    2680    2681    2682    2683    2684    2685    2686 
   2687    2688    2689    2690    2691    2692    2693    2694    2695    2696 
   2697    2698    2699    2700    2701    2702    2703    2704    2705    2706 
   2707    2708    2709    2710    2711    2712    2713    2714    2715    2716 
   2717    2718    2719    2720    2721    2722    2723    2724    2725    2726 
   2727    2728    2729    2730    2731    2732    2733    2734    2735    2736 
   2737    2738    2739    2740    2741    2742    2743    2744    2745    2746 
   2747    2748    2749    2750    2751    2752    2753    2877    2949    2986 
   3023    3060    3097    3134    3171    3208    3245    3282    3319    3356 
   3393    3430    3467    3504    3541    3578    3615    3652    3689    3726 
   3922    3994    4031    4068    4105    4142    4179    4216    4253    4290 
   4327    4364    4401    4438    4475    4512    4549    4586    4623    4660 
   4697    4734    4771    4880    4905    4941    4942    4943    4944    4945 
   4946    4947    4948    4949    4950    4951    4952    4953    4954    4955 
   4956    4957    4958    4959    4960    4961    4962    4963 
Width Array
      0       0   1.125 0.749999   0.375     1.5   1.125   1.125    0.75     1.5 
      0       0       0       0       0       0       0       0       0       0 
      0       0       0       0       0       0       0       0       0       0 
      0       0       0   1.125   1.125   1.125   1.125   1.125   1.125   1.125 
  1.125   1.125   1.125   1.125   1.125   1.125   1.125   1.125   1.125   1.125 
  1.125   1.125   1.125   1.125   1.125   1.125   1.125   1.125   1.125   1.125 
0.750001   1.125   1.125   1.125   1.125   1.125   1.125   1.125   1.125   1.125 
  1.125   1.125   1.125   1.125   1.125   1.125   1.125   1.125   1.125   1.125 
0.750001     1.5   1.125   1.125   1.125   1.125   1.125   1.125   1.125   1.125 
  1.125   1.125   1.125   1.125   1.125   1.125   1.125   1.125   1.125   1.125 
  1.125   1.125   1.125   1.125   1.125   1.125   1.125   1.125   1.125    2.25 
  1.125    2.25   1.125    2.25   1.125    2.25   1.125    2.25   1.125    2.25 
  1.125    2.25   1.125    2.25   1.125    2.25   1.125    2.25   1.125    2.25 
  1.125    2.25   1.125    2.25   1.125    2.25   1.125    2.25   1.125    2.25 
  1.125    2.25   1.125    2.25   1.125    2.25    2.25    2.25    2.25    2.25 
   2.25    2.25    2.25    2.25    2.25    2.25    2.25    2.25    2.25    2.25 
   2.25    2.25    2.25    2.25    2.25    2.25    2.25    2.25    2.25    2.25 
   2.25    2.25    2.25    2.25    2.25    2.25    2.25    2.25    2.25    2.25 
   2.25    2.25    2.25    2.25    2.25    2.25    2.25    2.25    2.25    2.25 
   2.25    2.25    2.25    2.25    2.25    2.25    2.25    2.25    2.25    2.25 
   2.25    2.25    2.25    2.25    2.25    2.25    2.25    2.25    2.25    2.25 
   2.25    2.25    2.25    2.25    2.25    2.25    2.25    2.25    2.25    2.25 
   2.25    2.25    2.25    2.25    2.25    2.25    2.25    2.25    2.25    2.25 
   2.25    2.25    2.25    2.25    2.25    2.25    2.25    2.25    2.25    2.25 
   2.25    2.25    2.25    2.25    2.25    2.25    2.25    2.25    2.25    2.25 
   2.25    2.25    2.25    2.25    2.25    2.25    2.25    2.25    2.25    2.25 
   2.25    2.25    2.25    2.25    2.25    2.25    2.25    2.25    2.25    2.25 
   2.25    2.25    2.25    2.25    2.25    2.25    2.25    2.25    2.25    2.25 
   2.25    2.25    2.25    2.25    2.25    2.25    2.25    2.25    2.25    2.25 
   2.25    2.25    2.25    2.25    2.25    2.25    2.25    2.25    2.25    2.25 
   2.25    2.25    2.25    2.25    2.25    2.25    2.25    2.25    2.25    2.25 
   2.25    2.25    2.25    2.25    2.25    2.25    2.25    2.25    2.25    2.25 
   2.25    2.25    2.25    2.25    2.25    2.25    2.25    2.25    2.25    2.25 
   2.25    2.25    2.25    2.25    2.25    2.25    2.25    2.25    2.25    2.25 
   2.25    2.25    2.25    2.25    2.25    2.25    2.25    2.25    2.25    2.25 
   2.25    2.25    2.25    2.25    2.25    2.25    2.25    2.25    2.25    2.25 
   2.25    2.25    2.25    2.25    2.25    2.25    2.25    2.25    2.25    2.25 
   2.25    2.25    2.25    2.25    2.25    2.25    2.25    2.25    2.25    2.25 
   2.25    2.25    2.25    2.25    2.25    2.25    2.25    2.25    2.25    2.25 
   2.25    2.25    2.25    2.25    2.25    2.25    2.25    2.25    2.25    2.25 
   2.25    2.25    2.25    2.25    2.25    2.25    2.25    2.25    2.25    2.25 
   2.25    2.25    2.25    2.25    2.25    2.25    2.25    2.25    2.25    2.25 
   2.25    2.25    2.25    2.25    2.25    2.25    2.25    2.25    2.25    2.25 
   2.25    2.25    2.25    2.25    2.25    2.25    2.25    2.25    2.25    2.25 
   2.25    2.25    2.25    2.25    2.25    2.25    2.25    2.25    2.25    2.25 
   2.25    2.25    2.25    2.25    2.25    2.25    2.25    2.25    2.25    2.25 
   2.25    2.25    2.25    2.25    2.25    2.25    2.25    2.25    2.25    2.25 
   2.25    2.25    2.25    2.25    2.25    2.25    2.25    2.25    2.25    2.25 
   2.25    2.25    2.25    2.25    2.25    2.25    2.25    2.25    2.25    2.25 
   2.25    2.25    2.25    2.25    2.25    2.25    2.25    2.25    2.25    2.25 
   2.25    2.25    2.25    2.25    2.25    2.25    2.25    2.25    2.25    2.25 
   2.25    2.25    2.25    2.25    2.25    2.25    2.25    2.25    2.25    2.25 
   2.25    2.25    2.25    2.25    2.25    2.25    2.25    2.25    2.25    2.25 
   2.25    2.25    2.25    2.25    2.25    2.25    2.25    2.25    2.25    2.25 
   2.25    2.25    2.25    2.25    2.25    2.25    2.25    2.25    2.25    2.25 
   2.25    2.25    2.25    2.25    2.25    2.25    2.25    2.25    2.25    2.25 
   2.25    2.25    2.25    2.25    2.25    2.25    2.25    2.25    2.25    2.25 
   2.25    2.25    2.25    2.25    2.25    2.25    2.25    2.25    2.25    2.25 
   2.25    2.25    2.25    2.25    2.25    2.25    2.25    2.25    2.25    2.25 
   2.25    2.25    2.25    2.25    2.25    2.25    2.25    2.25    2.25    2.25 
   2.25    2.25    2.25    2.25    2.25    2.25    2.25    2.25    2.25    2.25 
   2.25    2.25    2.25    2.25    2.25    2.25    2.25    2.25    2.25    2.25 
   2.25    2.25    2.25    2.25    2.25    2.25    2.25    2.25    2.25    2.25 
   2.25    2.25    2.25    2.25    2.25    2.25    2.25    2.25    2.25    2.25 
   2.25    2.25    2.25    2.25    2.25    2.25    2.25    2.25    2.25    2.25 
   2.25    2.25    2.25    2.25    2.25    2.25    2.25    2.25    2.25    2.25 
   2.25    2.25    2.25    2.25    2.25    2.25    2.25    2.25    2.25    2.25 
   2.25    2.25    2.25    2.25    2.25    2.25    2.25    2.25    2.25    2.25 
   2.25    2.25    2.25    2.25    2.25    2.25    2.25    2.25    2.25    2.25 
   2.25    2.25    2.25    2.25    2.25    2.25    2.25       0       0       0 
      0       0       0       0       0       0       0       0       0       0 
      0       0       0       0       0       0       0       0       0       0 
      0       0       0       0       0       0       0       0       0       0 
      0       0       0       0       0       0       0       0       0       0 
      0       0       0       0       0       0       0       0       0       0 
      0       0       0       0       0       0       0       0       0       0 
      0       0       0       0       0       0       0       0 
Length of soil surface associated with transpiration
              0
*** End of input file 'BOUNDARY.IN' *******************************************
